<?xml version="1.0" encoding="UTF-8"?>

<!-- generated on 2024-07-30 01:13:03 by Eclipse SUMO netedit Version 1.12.0
-->

<routes xmlns:xsi="http://www.w3.org/2001/XMLSchema-instance" xsi:noNamespaceSchemaLocation="http://sumo.dlr.de/xsd/routes_file.xsd">
    <route id="r_0" edges="-E0 E11 E12 E13 -E10 -E9 -E8 -E7 E6 -E5 -E4 -E3 -E2 E1 -E0"/>
    <route id="r_1" edges="E0 -E1 E2 E3 E4 E5 -E6 E7 E8 E9 E10 -E13 -E12 -E11 E0"/>
    <flow id="f_0" begin="0.00" route="r_0" end="3600.00" vehsPerHour="200.00"/>
    <flow id="f_1" begin="0.00" route="r_1" end="3600.00" vehsPerHour="200.00"/>
</routes>
