<?xml version="1.0" encoding="UTF-8"?>

<!-- generated on 2024-05-16 11:11:09 by Eclipse SUMO GUI Version 1.12.0
-->

<configuration xmlns:xsi="http://www.w3.org/2001/XMLSchema-instance" xsi:noNamespaceSchemaLocation="http://sumo.dlr.de/xsd/sumoConfiguration.xsd">

    <input>
        <net-file value="C:\Users\jordy\Desktop\Coding\scenario\active_rev.net.xml"/>
        <route-files value="C:\Users\jordy\Desktop\Coding\scenario\active_rev.rou.xml"/>
    </input>

</configuration>
