<?xml version="1.0" encoding="UTF-8"?>

<!-- generated on 2024-05-16 11:09:07 by Eclipse SUMO netedit Version 1.12.0
-->

<routes xmlns:xsi="http://www.w3.org/2001/XMLSchema-instance" xsi:noNamespaceSchemaLocation="http://sumo.dlr.de/xsd/routes_file.xsd">
    <route id="r_0" edges="E18 E15 E16"/>
    <route id="r_1" edges="E19 E15 E17"/>
    <route id="r_2" edges="-E16 -E15 -E18"/>
    <route id="r_3" edges="-E17 -E15 -E19"/>
    <vehicle id="v_1" depart="0.00" color="255,0,24" route="r_2"/>
    <vehicle id="v_2" depart="0.00" color="0,255,72" route="r_0"/>
    <vehicle id="v_3" depart="0.00" color="20,0,255" route="r_3"/>
    <vehicle id="v_4" depart="0.00" color="255,0,127" route="r_1"/>
</routes>
