<?xml version="1.0" encoding="UTF-8"?>

<!-- generated on 2024-07-20 18:11:57 by Eclipse SUMO netedit Version 1.12.0
-->

<routes xmlns:xsi="http://www.w3.org/2001/XMLSchema-instance" xsi:noNamespaceSchemaLocation="http://sumo.dlr.de/xsd/routes_file.xsd">
    <route id="r_0" edges="E0 E2 E1 E3"/>
    <flow id="f_0" begin="0.00" from="E0" to="E3" via="E2 E1" end="3600.00" vehsPerHour="1800.00"/>
</routes>
