<?xml version="1.0" encoding="UTF-8"?>

<!-- generated on 2024-07-23 23:28:15 by Eclipse SUMO netedit Version 1.12.0
-->

<routes xmlns:xsi="http://www.w3.org/2001/XMLSchema-instance" xsi:noNamespaceSchemaLocation="http://sumo.dlr.de/xsd/routes_file.xsd">
    <route id="r_0" edges="E0 E1 E2 E3 E4 E5 E6 E7"/>
    <flow id="f_0" begin="0.00" from="E0" to="E7" via="E1 E2 E3 E4 E5 E6" end="3600.00" vehsPerHour="1800.00"/>
</routes>
