[General]
network = artery.inet.World

sim-time-limit = 6000s
debug-on-errors = true
print-undisposed = true

cmdenv-express-mode = true
cmdenv-autoflush = true

**.scalar-recording = false
**.vector-recording = false

*.traci.core.version = -1
*.traci.launcher.typename = "PosixLauncher"
*.traci.launcher.sumocfg = "active_rev.sumocfg"
*.traci.launcher.sumo = "sumo-gui"

# RSU Configuration
*.numRoadSideUnits = 1

*.rsu[*].typename = "RSU"
*.rsu[*].wlan[*].typename = "VanetNic"
*.rsu[*].wlan[*].radio.channelNumber = 180
*.rsu[*].wlan[*].radio.carrierFrequency = 5.9 GHz
*.rsu[*].wlan[*].radio.transmitter.power = 200 mW

*.rsu[*].middleware.datetime = "2013-06-01 12:35:00"
*.rsu[*].middleware.services = xmldoc("services-rsu.xml")

*.rsu[*].mobility.initialZ = 10m
*.rsu[0].mobility.initialX = 0m
*.rsu[0].mobility.initialY = 0m

# Vehicle Configuration
*.node[*].typename = "Car"
*.node[*].mobility.z = 0
*.node[*].middleware.updateInterval = 0.1s
*.node[*].middleware.datetime = "2013-06-01 12:35:00"
*.node[*].middleware.services = xmldoc("services-vehicles.xml")

*.sumoGUI = true
