<?xml version="1.0" encoding="UTF-8"?>

<!-- generated on 2023-11-28 23:12:46 by Eclipse SUMO netedit Version 1.12.0
-->

<routes xmlns:xsi="http://www.w3.org/2001/XMLSchema-instance" xsi:noNamespaceSchemaLocation="http://sumo.dlr.de/xsd/routes_file.xsd">
    <route id="r_0" edges="-E2 -E0"/>
    <route id="r_1" edges="-E2 E1"/>
    <route id="r_2" edges="-E1 -E0"/>
    <route id="r_3" edges="-E1 E2"/>
    <route id="r_4" edges="E0 E2"/>
    <route id="r_5" edges="E0 E1"/>
    <vehicle id="v_0" depart="0.00" route="r_5"/>
    <vehicle id="v_1" depart="0.00" color="red" route="r_2"/>
    <vehicle id="v_2" depart="0.00" color="green" route="r_0"/>
</routes>
