<?xml version="1.0" encoding="UTF-8"?>

<!-- generated on 2023-11-28 23:13:33 by Eclipse SUMO GUI Version 1.12.0
-->

<configuration xmlns:xsi="http://www.w3.org/2001/XMLSchema-instance" xsi:noNamespaceSchemaLocation="http://sumo.dlr.de/xsd/sumoConfiguration.xsd">

    <input>
        <net-file value="/home/zorbmax/artery/scenarios/junction/junction.net.xml"/>
        <route-files value="/home/zorbmax/artery/scenarios/junction/junction.rou.xml"/>
    </input>

</configuration>
